data_image0
_cell_length_a       3.07969
_cell_length_b       17.3493
_cell_length_c       3.04676
_cell_angle_alpha    90
_cell_angle_beta     90
_cell_angle_gamma    90

_symmetry_space_group_name_H-M    "P 1"
_symmetry_int_tables_number       1

loop_
  _symmetry_equiv_pos_as_xyz
  'x, y, z'

loop_
  _atom_site_label
  _atom_site_occupancy
  _atom_site_fract_x
  _atom_site_fract_y
  _atom_site_fract_z
  _atom_site_thermal_displace_type
  _atom_site_B_iso_or_equiv
  _atom_site_type_symbol
  B1       1.0000 0.00000  0.47165  0.25000  Biso   1.000  B
  B2       1.0000 0.50000  0.02835  0.75000  Biso   1.000  B
  B3       1.0000 0.50000  0.97165  0.25000  Biso   1.000  B
  B4       1.0000 0.00000  0.52835  0.75000  Biso   1.000  B
  Mo1      1.0000 0.50000  0.18540  0.75000  Biso   1.000  Mo
  Mo2      1.0000 0.00000  0.31461  0.25000  Biso   1.000  Mo
  Mo3      1.0000 0.50000  0.42801  0.75000  Biso   1.000  Mo
  Mo4      1.0000 0.00000  0.07199  0.25000  Biso   1.000  Mo
  Mo5      1.0000 0.00000  0.68539  0.75000  Biso   1.000  Mo
  Mo6      1.0000 0.50000  0.81460  0.25000  Biso   1.000  Mo
  Mo7      1.0000 0.00000  0.92801  0.75000  Biso   1.000  Mo
  Mo8      1.0000 0.50000  0.57199  0.25000  Biso   1.000  Mo
  C1       1.0000 0.00000  0.19141  0.25000  Biso   1.000  C
  C2       1.0000 0.50000  0.30860  0.75000  Biso   1.000  C
  C3       1.0000 0.50000  0.69140  0.25000  Biso   1.000  C
  C4       1.0000 0.00000  0.80859  0.75000  Biso   1.000  C
