data_image0
_chemical_formula_structural       B36C36Nb36Mo36
_chemical_formula_sum              "B36 C36 Nb36 Mo36"
_cell_length_a       9.41124
_cell_length_b       17.7357
_cell_length_c       9.25431
_cell_angle_alpha    89.9501
_cell_angle_beta     89.9973
_cell_angle_gamma    90.0579

_space_group_name_H-M_alt    "P 1"
_space_group_IT_number       1

loop_
  _space_group_symop_operation_xyz
  'x, y, z'

loop_
  _atom_site_type_symbol
  _atom_site_label
  _atom_site_symmetry_multiplicity
  _atom_site_fract_x
  _atom_site_fract_y
  _atom_site_fract_z
  _atom_site_occupancy
  B   B1        1.0  0.50046  0.97369  0.74868  1.0000
  B   B2        1.0  0.66743  0.46915  0.41503  1.0000
  B   B3        1.0  0.66896  0.52213  0.24946  1.0000
  B   B4        1.0  0.83023  0.97444  0.08467  1.0000
  B   B5        1.0  0.82998  0.02983  0.25059  1.0000
  B   B6        1.0  0.66936  0.46951  0.08440  1.0000
  B   B7        1.0  0.99932  0.47284  0.75195  1.0000
  B   B8        1.0  0.16720  0.02813  0.91650  1.0000
  B   B9        1.0  0.16766  0.97430  0.74875  1.0000
  B   B10       1.0  0.99877  0.52890  0.91765  1.0000
  B   B11       1.0  0.33132  0.52472  0.91733  1.0000
  B   B12       1.0  0.16718  0.02881  0.25175  1.0000
  B   B13       1.0  0.50124  0.02788  0.91617  1.0000
  B   B14       1.0  0.33253  0.46911  0.75087  1.0000
  B   B15       1.0  0.33213  0.47172  0.08360  1.0000
  B   B16       1.0  0.50282  0.03199  0.25061  1.0000
  B   B17       1.0  0.50218  0.97633  0.08476  1.0000
  B   B18       1.0  0.33434  0.52615  0.24898  1.0000
  B   B19       1.0  0.33371  0.52220  0.58337  1.0000
  B   B20       1.0  0.50130  0.97799  0.41669  1.0000
  B   B21       1.0  0.50096  0.03069  0.58256  1.0000
  B   B22       1.0  0.33567  0.47352  0.41498  1.0000
  B   B23       1.0  0.83138  0.97757  0.41602  1.0000
  B   B24       1.0  0.16720  0.97594  0.08426  1.0000
  B   B25       1.0  0.99832  0.52830  0.24835  1.0000
  B   B26       1.0  0.99914  0.47297  0.08271  1.0000
  B   B27       1.0  0.67095  0.52338  0.91729  1.0000
  B   B28       1.0  0.83144  0.97493  0.74955  1.0000
  B   B29       1.0  0.83119  0.02986  0.91632  1.0000
  B   B30       1.0  0.66912  0.46951  0.75118  1.0000
  B   B31       1.0  0.99769  0.47432  0.41560  1.0000
  B   B32       1.0  0.16751  0.97319  0.41682  1.0000
  B   B33       1.0  0.16792  0.02678  0.58162  1.0000
  B   B34       1.0  0.83125  0.02964  0.58240  1.0000
  B   B35       1.0  0.99781  0.52761  0.58362  1.0000
  B   B36       1.0  0.66926  0.52279  0.58382  1.0000
  C   C1        1.0  0.33239  0.19487  0.08118  1.0000
  C   C2        1.0  0.50112  0.31056  0.24851  1.0000
  C   C3        1.0  0.49877  0.69150  0.08115  1.0000
  C   C4        1.0  0.33783  0.81083  0.25151  1.0000
  C   C5        1.0  0.66382  0.80941  0.91951  1.0000
  C   C6        1.0  0.66401  0.81405  0.24878  1.0000
  C   C7        1.0  0.83134  0.68834  0.08321  1.0000
  C   C8        1.0  0.83004  0.68644  0.74980  1.0000
  C   C9        1.0  0.83428  0.31123  0.92074  1.0000
  C   C10       1.0  0.66750  0.18782  0.74945  1.0000
  C   C11       1.0  0.83341  0.30815  0.25000  1.0000
  C   C12       1.0  0.33229  0.18816  0.41780  1.0000
  C   C13       1.0  0.50030  0.30616  0.58054  1.0000
  C   C14       1.0  0.50541  0.68968  0.41985  1.0000
  C   C15       1.0  0.33423  0.81474  0.58166  1.0000
  C   C16       1.0  0.66812  0.19232  0.08453  1.0000
  C   C17       1.0  0.66629  0.80918  0.58417  1.0000
  C   C18       1.0  0.33252  0.19242  0.74957  1.0000
  C   C19       1.0  0.49944  0.30697  0.92125  1.0000
  C   C20       1.0  0.49960  0.68953  0.74672  1.0000
  C   C21       1.0  0.33255  0.80306  0.91705  1.0000
  C   C22       1.0  0.82472  0.68902  0.41630  1.0000
  C   C23       1.0  0.83503  0.30400  0.58057  1.0000
  C   C24       1.0  0.67020  0.19317  0.41597  1.0000
  C   C25       1.0  0.00024  0.19480  0.08325  1.0000
  C   C26       1.0  0.00061  0.19529  0.74878  1.0000
  C   C27       1.0  0.16525  0.30771  0.91878  1.0000
  C   C28       1.0  0.16934  0.69330  0.75229  1.0000
  C   C29       1.0  0.00210  0.80700  0.91709  1.0000
  C   C30       1.0  0.99892  0.80926  0.25188  1.0000
  C   C31       1.0  0.16958  0.68915  0.08106  1.0000
  C   C32       1.0  0.16516  0.30949  0.25217  1.0000
  C   C33       1.0  0.99789  0.18987  0.41876  1.0000
  C   C34       1.0  0.16388  0.30822  0.58180  1.0000
  C   C35       1.0  0.16754  0.69244  0.41616  1.0000
  C   C36       1.0  0.00038  0.80953  0.58236  1.0000
  Nb  Nb1       1.0  0.99840  0.92803  0.58286  1.0000
  Nb  Nb2       1.0  0.16462  0.81305  0.41280  1.0000
  Nb  Nb3       1.0  0.00114  0.07427  0.74756  1.0000
  Nb  Nb4       1.0  0.16771  0.57155  0.41651  1.0000
  Nb  Nb5       1.0  0.83893  0.81134  0.08474  1.0000
  Nb  Nb6       1.0  0.00632  0.68956  0.58415  1.0000
  Nb  Nb7       1.0  0.16304  0.42553  0.58170  1.0000
  Nb  Nb8       1.0  0.33601  0.92908  0.25017  1.0000
  Nb  Nb9       1.0  0.83609  0.42544  0.58250  1.0000
  Nb  Nb10      1.0  0.66650  0.92875  0.58080  1.0000
  Nb  Nb11      1.0  0.82922  0.57284  0.41534  1.0000
  Nb  Nb12      1.0  0.99880  0.92901  0.25042  1.0000
  Nb  Nb13      1.0  0.00291  0.68809  0.24919  1.0000
  Nb  Nb14      1.0  0.83439  0.18857  0.91809  1.0000
  Nb  Nb15      1.0  0.66951  0.30857  0.74841  1.0000
  Nb  Nb16      1.0  0.83495  0.80851  0.74754  1.0000
  Nb  Nb17      1.0  0.66531  0.92802  0.91880  1.0000
  Nb  Nb18      1.0  0.99889  0.07407  0.08374  1.0000
  Nb  Nb19      1.0  0.16463  0.42679  0.25020  1.0000
  Nb  Nb20      1.0  0.16360  0.19079  0.24864  1.0000
  Nb  Nb21      1.0  0.16877  0.57089  0.75092  1.0000
  Nb  Nb22      1.0  0.50250  0.57129  0.08206  1.0000
  Nb  Nb23      1.0  0.33125  0.69111  0.25044  1.0000
  Nb  Nb24      1.0  0.33421  0.07430  0.08240  1.0000
  Nb  Nb25      1.0  0.50498  0.18693  0.24746  1.0000
  Nb  Nb26      1.0  0.50334  0.18603  0.58334  1.0000
  Nb  Nb27      1.0  0.50139  0.42568  0.58186  1.0000
  Nb  Nb28      1.0  0.50381  0.57384  0.41721  1.0000
  Nb  Nb29      1.0  0.50070  0.57097  0.75045  1.0000
  Nb  Nb30      1.0  0.00038  0.92902  0.91704  1.0000
  Nb  Nb31      1.0  0.99797  0.68486  0.91688  1.0000
  Nb  Nb32      1.0  0.33221  0.31318  0.75204  1.0000
  Nb  Nb33      1.0  0.50065  0.42621  0.92048  1.0000
  Nb  Nb34      1.0  0.33300  0.07315  0.74999  1.0000
  Nb  Nb35      1.0  0.49795  0.80994  0.75089  1.0000
  Nb  Nb36      1.0  0.33305  0.92782  0.91748  1.0000
  Mo  Mo1       1.0  0.83576  0.42803  0.91933  1.0000
  Mo  Mo2       1.0  0.33340  0.07260  0.41742  1.0000
  Mo  Mo3       1.0  0.33466  0.68088  0.91152  1.0000
  Mo  Mo4       1.0  0.16729  0.56896  0.08127  1.0000
  Mo  Mo5       1.0  0.34079  0.30520  0.41234  1.0000
  Mo  Mo6       1.0  0.16988  0.81221  0.07782  1.0000
  Mo  Mo7       1.0  0.32910  0.31403  0.08467  1.0000
  Mo  Mo8       1.0  0.51131  0.80524  0.41810  1.0000
  Mo  Mo9       1.0  0.66623  0.07142  0.74964  1.0000
  Mo  Mo10      1.0  0.66658  0.69232  0.92210  1.0000
  Mo  Mo11      1.0  0.50019  0.42733  0.24873  1.0000
  Mo  Mo12      1.0  0.16985  0.18230  0.91299  1.0000
  Mo  Mo13      1.0  0.83261  0.56908  0.75151  1.0000
  Mo  Mo14      1.0  0.99879  0.31600  0.75600  1.0000
  Mo  Mo15      1.0  0.48819  0.81072  0.07917  1.0000
  Mo  Mo16      1.0  0.00215  0.31480  0.07961  1.0000
  Mo  Mo17      1.0  0.16374  0.42775  0.91815  1.0000
  Mo  Mo18      1.0  0.16442  0.19254  0.58890  1.0000
  Mo  Mo19      1.0  0.66481  0.92958  0.25086  1.0000
  Mo  Mo20      1.0  0.83171  0.56936  0.08372  1.0000
  Mo  Mo21      1.0  0.66689  0.07274  0.08327  1.0000
  Mo  Mo22      1.0  0.49733  0.18924  0.91663  1.0000
  Mo  Mo23      1.0  0.83597  0.42643  0.24890  1.0000
  Mo  Mo24      1.0  0.16644  0.81374  0.76122  1.0000
  Mo  Mo25      1.0  0.99934  0.07219  0.41773  1.0000
  Mo  Mo26      1.0  0.66888  0.31435  0.08639  1.0000
  Mo  Mo27      1.0  0.99169  0.31083  0.41562  1.0000
  Mo  Mo28      1.0  0.32278  0.69806  0.58382  1.0000
  Mo  Mo29      1.0  0.83262  0.18265  0.57833  1.0000
  Mo  Mo30      1.0  0.66544  0.31756  0.41652  1.0000
  Mo  Mo31      1.0  0.83164  0.18264  0.25288  1.0000
  Mo  Mo32      1.0  0.66818  0.07334  0.41614  1.0000
  Mo  Mo33      1.0  0.66841  0.69165  0.59634  1.0000
  Mo  Mo34      1.0  0.82464  0.80421  0.41810  1.0000
  Mo  Mo35      1.0  0.33440  0.92913  0.58225  1.0000
  Mo  Mo36      1.0  0.66576  0.69530  0.23372  1.0000
