data_image0
_cell_length_a       3.19665
_cell_length_b       18.1155
_cell_length_c       3.12006
_cell_angle_alpha    90
_cell_angle_beta     90
_cell_angle_gamma    90

_symmetry_space_group_name_H-M    "P 1"
_symmetry_int_tables_number       1

loop_
  _symmetry_equiv_pos_as_xyz
  'x, y, z'

loop_
  _atom_site_label
  _atom_site_occupancy
  _atom_site_fract_x
  _atom_site_fract_y
  _atom_site_fract_z
  _atom_site_thermal_displace_type
  _atom_site_B_iso_or_equiv
  _atom_site_type_symbol
  B1       1.0000 0.00000  0.47448  0.25000  Biso   1.000  B
  B2       1.0000 0.50000  0.02552  0.75000  Biso   1.000  B
  B3       1.0000 0.50000  0.97448  0.25000  Biso   1.000  B
  B4       1.0000 0.00000  0.52552  0.75000  Biso   1.000  B
  Nb1      1.0000 0.50000  0.19209  0.75000  Biso   1.000  Nb
  Nb2      1.0000 0.00000  0.30790  0.25000  Biso   1.000  Nb
  Nb3      1.0000 0.50000  0.42801  0.75000  Biso   1.000  Nb
  Nb4      1.0000 0.00000  0.07198  0.25000  Biso   1.000  Nb
  Nb5      1.0000 0.00000  0.69210  0.75000  Biso   1.000  Nb
  Nb6      1.0000 0.50000  0.80791  0.25000  Biso   1.000  Nb
  Nb7      1.0000 0.00000  0.92802  0.75000  Biso   1.000  Nb
  Nb8      1.0000 0.50000  0.57199  0.25000  Biso   1.000  Nb
  C1       1.0000 0.00000  0.18957  0.25000  Biso   1.000  C
  C2       1.0000 0.50000  0.31042  0.75000  Biso   1.000  C
  C3       1.0000 0.50000  0.68958  0.25000  Biso   1.000  C
  C4       1.0000 0.00000  0.81043  0.75000  Biso   1.000  C
